OPT_V8/My_Campus_24/powerflow_results_t3.txt
Pandapower Network Debug Info
==================================================

BUS:
       vm_pu  va_degree      p_mw    q_mvar
0   0.992581   0.107390  0.001090  0.001030
1   0.987891   0.179568  0.001533  0.001897
2   0.983480   0.253500  0.002310  0.003187
3   0.988673   0.173377  0.002778  0.003859
4   0.990075   0.164722  0.003001  0.004314
5   0.992273   0.094069  0.003793  0.004830
6   0.990470   0.104218  0.001179  0.001119
7   0.997390   0.008617  0.002112  0.001838
8   0.997900   0.025429  0.002604  0.002509
9   0.999873   0.000556  0.010622  0.011664
10  0.999858   0.000543  0.012923  0.010744
11  0.999848   0.000506  0.014360  0.009862
12  0.999787   0.001181  0.008174  0.005452
13  0.999760   0.001353  0.011580  0.011225
14  0.999770   0.001292  0.011815  0.009968
15  0.999922   0.000436  0.000000  0.000000
16  0.999922   0.000442  0.000000  0.000000
17  0.999792   0.001199  0.000000  0.000000
18  0.999792   0.001208  0.000000  0.000000
19  1.000000   0.000000 -0.045774 -0.047349
20  1.000000   0.000006  0.000000  0.000000
21  1.000000   0.000000 -0.044392 -0.046344
22  1.000000   0.000006  0.000000  0.000000
--------------------------------------------------

LINE:
    p_from_mw  q_from_mvar   p_to_mw  q_to_mvar         pl_mw       ql_mvar  i_from_ka   i_to_ka      i_ka  vm_from_pu  va_from_degree  vm_to_pu  va_to_degree  loading_percent
0    0.045764     0.043349 -0.045760  -0.043346  3.886542e-06  3.030401e-06   0.002426  0.002426  0.002426    1.000000        0.000006  0.999922      0.000436         1.054880
1    0.044382     0.042344 -0.044372  -0.042336  1.012146e-05  7.891868e-06   0.002361  0.002361  0.002361    1.000000        0.000006  0.999792      0.001199         1.026541
2    0.037908     0.032271 -0.037906  -0.032269  1.916825e-06  1.494580e-06   0.001916  0.001916  0.001916    0.999922        0.000436  0.999873      0.000556         0.833187
3    0.008174     0.005452 -0.008174  -0.005452  3.340102e-08  2.604332e-08   0.000378  0.000378  0.000378    0.999792        0.001199  0.999787      0.001181         0.164465
4    0.023396     0.021193 -0.023395  -0.021193  5.451237e-07  4.250419e-07   0.001215  0.001215  0.001215    0.999792        0.001199  0.999770      0.001292         0.528392
5    0.007842     0.010075 -0.007765  -0.010016  7.625036e-05  5.945366e-05   0.018429  0.018429  0.018429    0.999922        0.000442  0.992581      0.107390         8.012707
6    0.005022     0.005988 -0.004974  -0.005951  4.740010e-05  3.695864e-05   0.011282  0.011282  0.011282    0.999792        0.001208  0.992273      0.094069         4.905253
7    0.002118     0.001842 -0.002112  -0.001838  5.325060e-06  4.152037e-06   0.004052  0.004052  0.004052    0.999792        0.001208  0.997390      0.008617         1.761841
8    0.005653     0.006861 -0.005639  -0.006850  1.359273e-05  1.059847e-05   0.012834  0.012834  0.012834    0.999792        0.001208  0.997900      0.025429         5.579812
9   -0.027283    -0.020605  0.027284   0.020606  4.043700e-07  3.152939e-07   0.001316  0.001316  0.001316    0.999858        0.000543  0.999873      0.000556         0.572247
10  -0.014360    -0.009862  0.014360   0.009862  1.484586e-07  1.157556e-07   0.000671  0.000671  0.000671    0.999848        0.000506  0.999858      0.000543         0.291567
11   0.011580     0.011225 -0.011580  -0.011225  1.272674e-07  9.923249e-08   0.000621  0.000621  0.000621    0.999770        0.001292  0.999760      0.001353         0.269957
12  -0.003857    -0.005095  0.003882   0.005115  2.475741e-05  1.930376e-05   0.009337  0.009337  0.009337    0.987891        0.179568  0.992581      0.107390         4.059578
13  -0.002778    -0.003859  0.002793   0.003871  1.544154e-05  1.204002e-05   0.006941  0.006941  0.006941    0.988673        0.173377  0.992581      0.107390         3.017944
14  -0.002310    -0.003187  0.002324   0.003198  1.448685e-05  1.129563e-05   0.005776  0.005776  0.005776    0.983480        0.253500  0.987891      0.179568         2.511376
15   0.003035     0.004341 -0.003001  -0.004314  3.428089e-05  2.672937e-05   0.007661  0.007661  0.007661    0.997900        0.025429  0.990075      0.164722         3.331012
16  -0.001179    -0.001119  0.001181   0.001121  2.345186e-06  1.828581e-06   0.002369  0.002369  0.002369    0.990470        0.104218  0.992273      0.094069         1.029972
--------------------------------------------------

TRAFO:
    p_hv_mw  q_hv_mvar   p_lv_mw  q_lv_mvar    pl_mw  ql_mvar   i_hv_ka   i_lv_ka  vm_hv_pu  va_hv_degree  vm_lv_pu  va_lv_degree  loading_percent
0  0.007852   0.011075 -0.007842  -0.010075  0.00001    0.001  0.000523  0.018429  0.999922      0.000436  0.999922      0.000442         0.135769
1  0.012802   0.015690 -0.012792  -0.014691  0.00001    0.001  0.000780  0.028122  0.999792      0.001199  0.999792      0.001208         0.202547
2  0.045774   0.047349 -0.045764  -0.043349  0.00001    0.004  0.000543  0.002426  1.000000      0.000000  1.000000      0.000006         0.164642
3  0.044392   0.046344 -0.044382  -0.042344  0.00001    0.004  0.000529  0.002361  1.000000      0.000000  1.000000      0.000006         0.160438
--------------------------------------------------
